Version 4
SHEET 1 880 680
WIRE -112 -880 -176 -880
WIRE -176 -848 -176 -880
WIRE 208 -752 32 -752
WIRE -112 -736 -112 -880
WIRE -288 -720 -352 -720
WIRE -192 -720 -208 -720
WIRE -144 -720 -192 -720
WIRE -48 -704 -80 -704
WIRE -32 -704 -48 -704
WIRE -144 -688 -160 -688
WIRE -160 -672 -160 -688
WIRE -112 -640 -112 -672
WIRE 208 -624 208 -752
WIRE -192 -512 -192 -720
WIRE -48 -512 -48 -640
WIRE -48 -512 -192 -512
WIRE 32 -512 32 -656
WIRE 32 -512 -48 -512
WIRE 112 -304 16 -304
WIRE 432 -304 112 -304
WIRE 208 -128 208 -624
WIRE 496 -64 384 -64
WIRE 592 -64 576 -64
WIRE -496 -48 -592 -48
WIRE -368 -48 -416 -48
WIRE -256 -48 -288 -48
WIRE -128 -48 -176 -48
WIRE 16 -48 -128 -48
WIRE 112 -48 112 -304
WIRE 432 -32 432 -304
WIRE 208 -16 208 -48
WIRE 384 -16 384 -64
WIRE 384 -16 256 -16
WIRE 400 -16 384 -16
WIRE -128 0 -128 -48
WIRE 592 0 592 -64
WIRE 592 0 464 0
WIRE 656 0 592 0
WIRE 256 16 256 -16
WIRE 256 16 240 16
WIRE 400 16 384 16
WIRE 384 32 384 16
WIRE -128 112 -128 80
WIRE -64 112 -64 80
WIRE 256 128 256 112
WIRE 112 288 112 80
WIRE 112 288 16 288
WIRE 432 288 432 32
WIRE 432 288 112 288
FLAG -64 112 0
FLAG -128 112 0
FLAG -160 -672 0
FLAG -352 -640 0
FLAG -176 -768 0
FLAG -112 -560 0
FLAG 288 16 0
FLAG 208 -624 cutoff_cc
FLAG 16 -224 0
FLAG 16 368 0
FLAG -592 32 0
FLAG 384 32 0
SYMBOL res -160 -64 R90
WINDOW 0 0 56 VBottom 2
WINDOW 3 32 56 VTop 2
SYMATTR InstName R1
SYMATTR Value 4.7k
SYMBOL res -112 96 R180
WINDOW 0 36 76 Left 2
WINDOW 3 36 40 Left 2
SYMATTR InstName R2
SYMATTR Value 560
SYMBOL res 192 -144 R0
SYMATTR InstName R4
SYMATTR Value 18k
SYMBOL LM13700 80 -64 R0
SYMATTR InstName U2
SYMBOL LT1001 -112 -768 R0
WINDOW 0 26 -13 Left 2
WINDOW 3 -18 142 Left 2
SYMATTR InstName U3
SYMBOL pnp -32 -752 R0
SYMATTR InstName Q1
SYMBOL res -192 -736 R90
WINDOW 0 0 56 VBottom 2
WINDOW 3 32 56 VTop 2
SYMATTR InstName R5
SYMATTR Value 50k
SYMBOL diode -64 -704 R0
SYMATTR InstName D1
SYMBOL voltage -352 -736 R0
WINDOW 123 0 0 Left 2
WINDOW 39 0 0 Left 2
SYMATTR InstName V1
SYMATTR Value 15
SYMBOL voltage -176 -864 R0
SYMATTR InstName V2
SYMATTR Value 15
SYMBOL voltage -112 -656 R0
SYMATTR InstName V3
SYMATTR Value -15
SYMBOL res 32 64 R90
WINDOW 0 0 56 VBottom 2
WINDOW 3 32 56 VTop 2
SYMATTR InstName R3
SYMATTR Value 560
SYMBOL voltage 16 -320 R0
SYMATTR InstName V4
SYMATTR Value 15
SYMBOL voltage 16 272 R0
WINDOW 123 0 0 Left 2
WINDOW 39 0 0 Left 2
SYMATTR InstName V5
SYMATTR Value -15
SYMBOL LT1001 432 -64 R0
WINDOW 0 26 -13 Left 2
WINDOW 3 -18 142 Left 2
SYMATTR InstName U1
SYMBOL voltage -592 -64 R0
WINDOW 123 0 0 Left 2
WINDOW 39 0 0 Left 2
SYMATTR InstName V6
SYMATTR Value SINE(0 2.4 1000)
SYMBOL res 592 -80 R90
WINDOW 0 0 56 VBottom 2
WINDOW 3 32 56 VTop 2
SYMATTR InstName R6
SYMATTR Value 10k
SYMBOL res -272 -64 R90
WINDOW 0 0 56 VBottom 2
WINDOW 3 32 56 VTop 2
SYMATTR InstName R8
SYMATTR Value 82k
SYMBOL res -400 -64 R90
WINDOW 0 0 56 VBottom 2
WINDOW 3 32 56 VTop 2
SYMATTR InstName R9
SYMATTR Value 25k
TEXT -386 392 Left 2 !.tran 0 0.01 0 1
TEXT -360 176 Left 2 !.lib LM13700.sub
TEXT -360 208 Left 2 !.lib LTC.lib
