Version 4
SHEET 1 3748 1108
WIRE 176 -1552 -224 -1552
WIRE 864 -1552 176 -1552
WIRE 544 -1472 192 -1472
WIRE 592 -1472 544 -1472
WIRE 704 -1472 672 -1472
WIRE 736 -1472 704 -1472
WIRE 864 -1472 864 -1552
WIRE 864 -1472 816 -1472
WIRE 1136 -1472 864 -1472
WIRE -144 -1440 -288 -1440
WIRE -64 -1440 -144 -1440
WIRE 48 -1440 16 -1440
WIRE 64 -1440 48 -1440
WIRE 160 -1440 144 -1440
WIRE 704 -1440 704 -1472
WIRE 176 -1376 176 -1552
WIRE 176 -1376 96 -1376
WIRE -224 -1344 -224 -1552
WIRE 96 -1344 96 -1376
WIRE -288 -1328 -288 -1440
WIRE -256 -1328 -288 -1328
WIRE 48 -1328 48 -1440
WIRE 48 -1328 16 -1328
WIRE 64 -1328 48 -1328
WIRE -144 -1312 -144 -1440
WIRE -144 -1312 -192 -1312
WIRE 160 -1312 160 -1440
WIRE 160 -1312 128 -1312
WIRE 368 -1312 160 -1312
WIRE 560 -1312 528 -1312
WIRE 592 -1312 560 -1312
WIRE 704 -1312 704 -1360
WIRE 704 -1312 672 -1312
WIRE 1024 -1312 704 -1312
WIRE -256 -1296 -352 -1296
WIRE 64 -1296 32 -1296
WIRE 560 -1280 560 -1312
WIRE 704 -1280 704 -1312
WIRE -352 -1264 -352 -1296
WIRE 32 -1264 32 -1296
WIRE 560 -1200 560 -1216
WIRE -224 -1168 -224 -1280
WIRE -64 -1168 -64 -1328
WIRE -64 -1168 -224 -1168
WIRE 96 -1168 96 -1280
WIRE 96 -1168 -64 -1168
WIRE 192 -1168 192 -1472
WIRE 192 -1168 96 -1168
WIRE 704 -1088 528 -1088
WIRE 2320 -1088 864 -1088
WIRE 704 -960 704 -1088
WIRE 864 -960 864 -1088
WIRE 640 -912 592 -912
WIRE 1024 -912 1024 -1312
WIRE 1024 -912 928 -912
WIRE 592 -880 592 -912
WIRE 784 -864 704 -864
WIRE 864 -864 784 -864
WIRE 784 -816 784 -864
WIRE 2992 -784 2960 -784
WIRE 2992 -768 2992 -784
WIRE 2960 -736 2960 -784
WIRE 528 -720 528 -1088
WIRE 576 -720 528 -720
WIRE 784 -720 784 -736
WIRE 784 -720 640 -720
WIRE 1136 -688 1136 -1472
WIRE 1136 -688 688 -688
WIRE 2720 -672 2624 -672
WIRE 2832 -672 2800 -672
WIRE 3136 -672 3008 -672
WIRE 688 -656 688 -688
WIRE 528 -640 528 -720
WIRE 656 -640 528 -640
WIRE 784 -624 784 -720
WIRE 784 -624 720 -624
WIRE 656 -608 624 -608
WIRE 624 -592 624 -608
WIRE 192 -560 192 -1168
WIRE 528 -560 192 -560
WIRE 528 -544 528 -560
WIRE 688 -544 688 -592
WIRE 688 -544 528 -544
WIRE 2320 -544 2320 -1088
WIRE 3136 -512 3136 -672
WIRE 2928 -416 -640 -416
WIRE 688 -320 -128 -320
WIRE 1504 -320 688 -320
WIRE 2320 -320 2320 -544
WIRE 2320 -320 1504 -320
WIRE -640 -256 -640 -416
WIRE 96 -224 -224 -224
WIRE 592 -224 96 -224
WIRE 912 -224 592 -224
WIRE 1408 -224 912 -224
WIRE 1728 -224 1408 -224
WIRE 2224 -224 1728 -224
WIRE 2544 -224 2224 -224
WIRE 3040 -224 2544 -224
WIRE 3264 -224 3040 -224
WIRE -128 -48 -128 -320
WIRE 688 -48 688 -320
WIRE 1504 -48 1504 -320
WIRE 2320 -48 2320 -320
WIRE 176 0 32 0
WIRE 992 0 848 0
WIRE 1808 0 1664 0
WIRE 2624 0 2480 0
WIRE -640 32 -640 -176
WIRE -640 32 -752 32
WIRE -592 32 -640 32
WIRE -464 32 -512 32
WIRE -416 32 -464 32
WIRE -320 32 -416 32
WIRE -224 32 -224 -224
WIRE 176 32 176 0
WIRE 224 32 176 32
WIRE 352 32 304 32
WIRE 400 32 352 32
WIRE 496 32 400 32
WIRE 592 32 592 -224
WIRE 992 32 992 0
WIRE 1040 32 992 32
WIRE 1168 32 1120 32
WIRE 1216 32 1168 32
WIRE 1312 32 1216 32
WIRE 1408 32 1408 -224
WIRE 1808 32 1808 0
WIRE 1856 32 1808 32
WIRE 1984 32 1936 32
WIRE 2032 32 1984 32
WIRE 2128 32 2032 32
WIRE 2224 32 2224 -224
WIRE 2624 32 2624 0
WIRE 2672 32 2624 32
WIRE 2800 32 2752 32
WIRE 2944 32 2800 32
WIRE 3040 32 3040 -224
WIRE 96 48 96 -224
WIRE 912 48 912 -224
WIRE 1728 48 1728 -224
WIRE 2544 48 2544 -224
WIRE -752 64 -752 32
WIRE -128 64 -128 32
WIRE 32 64 32 0
WIRE 64 64 32 64
WIRE 688 64 688 32
WIRE 848 64 848 0
WIRE 880 64 848 64
WIRE 1504 64 1504 32
WIRE 1664 64 1664 0
WIRE 1696 64 1664 64
WIRE 2320 64 2320 32
WIRE 2480 64 2480 0
WIRE 2512 64 2480 64
WIRE 3136 64 3136 -512
WIRE -464 80 -464 32
WIRE 48 80 -80 80
WIRE 176 80 176 32
WIRE 176 80 128 80
WIRE 352 80 352 32
WIRE 864 80 736 80
WIRE 992 80 992 32
WIRE 992 80 944 80
WIRE 1168 80 1168 32
WIRE 1680 80 1552 80
WIRE 1808 80 1808 32
WIRE 1808 80 1760 80
WIRE 1984 80 1984 32
WIRE 2496 80 2368 80
WIRE 2624 80 2624 32
WIRE 2624 80 2576 80
WIRE 2800 80 2800 32
WIRE -80 96 -80 80
WIRE -80 96 -96 96
WIRE 48 96 48 80
WIRE 64 96 48 96
WIRE 736 96 736 80
WIRE 736 96 720 96
WIRE 864 96 864 80
WIRE 880 96 864 96
WIRE 1552 96 1552 80
WIRE 1552 96 1536 96
WIRE 1680 96 1680 80
WIRE 1696 96 1680 96
WIRE 2368 96 2368 80
WIRE 2368 96 2352 96
WIRE 2496 96 2496 80
WIRE 2512 96 2496 96
WIRE 3184 96 3168 96
WIRE -80 128 -80 96
WIRE 736 128 736 96
WIRE 1552 128 1552 96
WIRE 2368 128 2368 96
WIRE 2928 160 2928 -416
WIRE 2944 160 2928 160
WIRE -464 192 -464 160
WIRE -320 192 -320 160
WIRE 352 192 352 160
WIRE 496 192 496 160
WIRE 1168 192 1168 160
WIRE 1312 192 1312 160
WIRE 1984 192 1984 160
WIRE 2128 192 2128 160
WIRE 2800 192 2800 160
WIRE 2848 192 2848 160
WIRE -80 208 -80 192
WIRE 736 208 736 192
WIRE 1552 208 1552 192
WIRE 2368 208 2368 192
WIRE -416 256 -416 32
WIRE -192 256 -416 256
WIRE 176 256 176 80
WIRE 176 256 -112 256
WIRE 400 256 400 32
WIRE 624 256 400 256
WIRE 992 256 992 80
WIRE 992 256 704 256
WIRE 1216 256 1216 32
WIRE 1440 256 1216 256
WIRE 1808 256 1808 80
WIRE 1808 256 1520 256
WIRE 2032 256 2032 32
WIRE 2256 256 2032 256
WIRE 2624 256 2624 80
WIRE 2624 256 2336 256
WIRE 2768 256 2624 256
WIRE -224 368 -224 160
WIRE 96 368 96 112
WIRE 96 368 -224 368
WIRE 592 368 592 160
WIRE 592 368 96 368
WIRE 912 368 912 112
WIRE 912 368 592 368
WIRE 1408 368 1408 160
WIRE 1408 368 912 368
WIRE 1728 368 1728 112
WIRE 1728 368 1408 368
WIRE 2224 368 2224 160
WIRE 2224 368 1728 368
WIRE 2544 368 2544 112
WIRE 2544 368 2224 368
WIRE 3040 368 3040 160
WIRE 3040 368 2544 368
WIRE 3264 368 3040 368
WIRE -416 464 -416 256
WIRE 3184 464 3184 96
WIRE 3184 464 -416 464
WIRE 2768 512 2768 256
WIRE 2768 512 2432 512
WIRE 3200 528 3120 528
WIRE 3200 544 3200 528
WIRE 2896 592 2848 592
WIRE 2848 608 2848 592
WIRE 3520 640 3024 640
WIRE 3680 640 3520 640
WIRE 3584 672 3456 672
WIRE 2432 704 2432 512
WIRE 2608 704 2576 704
WIRE 2784 704 2688 704
WIRE 2896 704 2896 672
WIRE 2896 704 2864 704
WIRE 2928 704 2896 704
WIRE 3024 704 3024 640
WIRE 3328 720 3168 720
WIRE 3520 720 3520 640
WIRE 3120 736 3120 608
WIRE 3456 736 3456 672
WIRE 3488 736 3456 736
WIRE 3584 752 3584 672
WIRE 3584 752 3552 752
WIRE 3728 752 3584 752
WIRE 3168 768 3168 720
WIRE 3168 768 3152 768
WIRE 3328 768 3328 720
WIRE 3392 768 3328 768
WIRE 3488 768 3392 768
WIRE 2544 800 2432 800
WIRE 2848 832 2832 832
WIRE 2832 848 2832 832
WIRE 3328 848 3328 832
WIRE 3360 848 3328 848
WIRE 3392 848 3360 848
WIRE 3360 864 3360 848
WIRE 2608 880 2544 880
WIRE 2688 880 2688 704
WIRE 3024 912 3024 832
WIRE 3520 912 3520 784
WIRE 3520 912 3024 912
WIRE 3680 912 3520 912
WIRE 2544 1008 2544 960
FLAG -320 192 0
FLAG -464 192 0
FLAG -80 208 0
FLAG 496 192 0
FLAG 352 192 0
FLAG 736 208 0
FLAG 1312 192 0
FLAG 1168 192 0
FLAG 1552 208 0
FLAG 2128 192 0
FLAG 1984 192 0
FLAG 2368 208 0
FLAG 2848 192 0
FLAG 2800 192 0
FLAG 3264 448 0
FLAG 3264 -144 0
FLAG 2624 -592 0
FLAG 2992 -768 0
FLAG -752 144 0
FLAG -48 96 0
FLAG 768 96 0
FLAG 1584 96 0
FLAG 2128 96 0
FLAG 2400 96 0
FLAG 3216 96 0
FLAG 3136 -512 resonance_cc
FLAG 2320 -544 cutoff_cc
FLAG 2848 608 0
FLAG 2832 848 0
FLAG 3360 864 0
FLAG 3200 768 0
FLAG 3680 720 0
FLAG 3680 992 0
FLAG 3200 544 0
FLAG 2432 880 0
FLAG 2544 1088 0
FLAG 704 -1200 0
FLAG 560 -1200 0
FLAG 544 -1392 0
FLAG 864 -1392 0
FLAG 624 -592 0
FLAG 592 -880 0
FLAG -352 -1184 0
FLAG 32 -1264 0
SYMBOL res -496 16 R90
WINDOW 0 0 56 VBottom 2
WINDOW 3 32 56 VTop 2
SYMATTR InstName R1
SYMATTR Value 4.7k
SYMBOL res -448 176 R180
WINDOW 0 36 76 Left 2
WINDOW 3 36 40 Left 2
SYMATTR InstName R2
SYMATTR Value 560
SYMBOL LT1001 96 16 R0
WINDOW 3 39 83 VRight 2
SYMATTR InstName U3
SYMBOL cap -96 128 R0
SYMATTR InstName C1
SYMATTR Value 270pF
SYMBOL res -96 240 R90
WINDOW 0 0 56 VBottom 2
WINDOW 3 32 56 VTop 2
SYMATTR InstName R3
SYMATTR Value 68k
SYMBOL res -144 -64 R0
SYMATTR InstName R4
SYMATTR Value 18k
SYMBOL res 320 16 R90
WINDOW 0 0 56 VBottom 2
WINDOW 3 32 56 VTop 2
SYMATTR InstName R5
SYMATTR Value 68k
SYMBOL res 368 176 R180
WINDOW 0 36 76 Left 2
WINDOW 3 36 40 Left 2
SYMATTR InstName R6
SYMATTR Value 560
SYMBOL LT1001 912 16 R0
WINDOW 3 39 83 VRight 2
SYMATTR InstName U4
SYMBOL cap 720 128 R0
SYMATTR InstName C2
SYMATTR Value 270pF
SYMBOL res 720 240 R90
WINDOW 0 0 56 VBottom 2
WINDOW 3 32 56 VTop 2
SYMATTR InstName R7
SYMATTR Value 68k
SYMBOL res 672 -64 R0
SYMATTR InstName R8
SYMATTR Value 18k
SYMBOL res 1136 16 R90
WINDOW 0 0 56 VBottom 2
WINDOW 3 32 56 VTop 2
SYMATTR InstName R9
SYMATTR Value 68k
SYMBOL res 1184 176 R180
WINDOW 0 36 76 Left 2
WINDOW 3 36 40 Left 2
SYMATTR InstName R10
SYMATTR Value 560
SYMBOL LT1001 1728 16 R0
WINDOW 3 39 83 VRight 2
SYMATTR InstName U6
SYMBOL cap 1536 128 R0
SYMATTR InstName C3
SYMATTR Value 270pF
SYMBOL res 1536 240 R90
WINDOW 0 0 56 VBottom 2
WINDOW 3 32 56 VTop 2
SYMATTR InstName R11
SYMATTR Value 68k
SYMBOL res 1488 -64 R0
SYMATTR InstName R12
SYMATTR Value 18k
SYMBOL res 1952 16 R90
WINDOW 0 0 56 VBottom 2
WINDOW 3 32 56 VTop 2
SYMATTR InstName R13
SYMATTR Value 68k
SYMBOL res 2000 176 R180
WINDOW 0 36 76 Left 2
WINDOW 3 36 40 Left 2
SYMATTR InstName R14
SYMATTR Value 560
SYMBOL LT1001 2544 16 R0
WINDOW 3 39 83 VRight 2
SYMATTR InstName U8
SYMBOL cap 2352 128 R0
SYMATTR InstName C4
SYMATTR Value 270pF
SYMBOL res 2352 240 R90
WINDOW 0 0 56 VBottom 2
WINDOW 3 32 56 VTop 2
SYMATTR InstName R15
SYMATTR Value 68k
SYMBOL res 2304 -64 R0
SYMATTR InstName R16
SYMATTR Value 18k
SYMBOL res 2768 16 R90
WINDOW 0 0 56 VBottom 2
WINDOW 3 32 56 VTop 2
SYMATTR InstName R17
SYMATTR Value 100k
SYMBOL res 2816 176 R180
WINDOW 0 36 76 Left 2
WINDOW 3 36 40 Left 2
SYMATTR InstName R18
SYMATTR Value 1.5k
SYMBOL res 2944 144 R90
WINDOW 0 0 56 VBottom 2
WINDOW 3 80 64 VTop 2
SYMATTR InstName R19
SYMATTR Value 1.5k
SYMBOL voltage 3264 -240 R0
WINDOW 123 0 0 Left 2
WINDOW 39 0 0 Left 2
SYMATTR InstName V1
SYMATTR Value 15
SYMBOL voltage 3264 352 R0
WINDOW 123 0 0 Left 2
WINDOW 39 0 0 Left 2
SYMATTR InstName V2
SYMATTR Value -15
SYMBOL LM13700 -256 16 R0
SYMATTR InstName U1
SYMBOL LM13700 560 16 R0
SYMATTR InstName U2
SYMBOL LM13700 1376 16 R0
SYMATTR InstName U5
SYMBOL LM13700 3008 16 R0
SYMATTR InstName U7
SYMBOL LM13700 2192 16 R0
SYMATTR InstName U9
SYMBOL pnp 3008 -736 R90
SYMATTR InstName Q2
SYMBOL voltage 2624 -688 R0
WINDOW 123 0 0 Left 2
WINDOW 39 0 0 Left 2
SYMATTR InstName V7
SYMATTR Value 0
SYMBOL res 2928 -688 R90
WINDOW 0 0 56 VBottom 2
WINDOW 3 32 56 VTop 2
SYMATTR InstName R21
SYMATTR Value 27k
SYMBOL res 2816 -688 R90
WINDOW 0 0 56 VBottom 2
WINDOW 3 32 56 VTop 2
SYMATTR InstName R22
SYMATTR Value 10k
SYMBOL voltage -752 48 R0
WINDOW 3 24 208 Left 2
WINDOW 123 24 180 Left 2
WINDOW 39 0 0 Left 2
SYMATTR Value SINE(0 1 200)
SYMATTR Value2 AC 1
SYMATTR InstName V3
SYMBOL LM13700 2992 688 R0
SYMATTR InstName U11
SYMBOL res 2912 688 R180
WINDOW 0 -65 79 Left 2
WINDOW 3 -37 43 Left 2
SYMATTR InstName R23
SYMATTR Value 560
SYMBOL res 2944 816 R90
WINDOW 0 0 56 VBottom 2
WINDOW 3 32 56 VTop 2
SYMATTR InstName R24
SYMATTR Value 560
SYMBOL res 2880 688 R90
WINDOW 0 0 56 VBottom 2
WINDOW 3 32 56 VTop 2
SYMATTR InstName R25
SYMATTR Value 4.7k
SYMBOL cap 3312 768 R0
SYMATTR InstName C5
SYMATTR Value 47p
SYMBOL res 3376 752 R0
SYMATTR InstName R26
SYMATTR Value 47k
SYMBOL LT1001 3520 688 R0
WINDOW 3 39 83 VRight 2
SYMATTR InstName U12
SYMBOL voltage 3680 624 R0
WINDOW 123 0 0 Left 2
WINDOW 39 0 0 Left 2
SYMATTR InstName V8
SYMATTR Value 15
SYMBOL voltage 3680 896 R0
WINDOW 123 0 0 Left 2
WINDOW 39 0 0 Left 2
SYMATTR InstName V9
SYMATTR Value -15
SYMBOL current 3120 528 R0
WINDOW 123 0 0 Left 2
WINDOW 39 0 0 Left 2
SYMATTR InstName I1
SYMATTR Value 20.75µ
SYMBOL cap 2496 688 R90
WINDOW 0 0 32 VBottom 2
WINDOW 3 32 32 VTop 2
SYMATTR InstName C6
SYMATTR Value 1µ
SYMBOL res 2592 688 R90
WINDOW 0 0 56 VBottom 2
WINDOW 3 32 56 VTop 2
SYMATTR InstName R27
SYMATTR Value 50k
SYMBOL res 2704 864 R90
WINDOW 0 0 56 VBottom 2
WINDOW 3 32 56 VTop 2
SYMATTR InstName R28
SYMATTR Value 2.2MEG
SYMBOL res 2528 784 R0
SYMATTR InstName R29
SYMATTR Value 60k
SYMBOL res 2528 864 R0
SYMATTR InstName R30
SYMATTR Value 40k
SYMBOL voltage 2544 992 R0
WINDOW 123 0 0 Left 2
WINDOW 39 0 0 Left 2
SYMATTR InstName V10
SYMATTR Value -15
SYMBOL voltage 2432 784 R0
WINDOW 123 0 0 Left 2
WINDOW 39 0 0 Left 2
SYMATTR InstName V11
SYMATTR Value 15
SYMBOL res 2704 688 R90
WINDOW 0 0 56 VBottom 2
WINDOW 3 32 56 VTop 2
SYMATTR InstName R31
SYMATTR Value 82k
SYMBOL res -656 -272 R0
SYMATTR InstName R32
SYMATTR Value 24k
SYMBOL res 464 -1328 R90
WINDOW 0 0 56 VBottom 2
WINDOW 3 32 56 VTop 2
SYMATTR InstName R33
SYMATTR Value 2.5k
SYMBOL res 544 -1328 R90
WINDOW 0 0 56 VBottom 2
WINDOW 3 32 56 VTop 2
SYMATTR InstName R34
SYMATTR Value 10k
SYMBOL res 688 -1328 R90
WINDOW 0 0 56 VBottom 2
WINDOW 3 32 56 VTop 2
SYMATTR InstName R35
SYMATTR Value 8k2
SYMBOL res 720 -1184 R180
WINDOW 0 36 76 Left 2
WINDOW 3 36 40 Left 2
SYMATTR InstName R36
SYMATTR Value 560
SYMBOL res 720 -1344 R180
WINDOW 0 36 76 Left 2
WINDOW 3 36 40 Left 2
SYMATTR InstName R37
SYMATTR Value 680k
SYMBOL res 720 -1456 R270
WINDOW 0 32 56 VTop 2
WINDOW 3 0 56 VBottom 2
SYMATTR InstName R38
SYMATTR Value 50k
SYMBOL res 576 -1456 R270
WINDOW 0 32 56 VTop 2
WINDOW 3 0 56 VBottom 2
SYMATTR InstName R39
SYMATTR Value 50k
SYMBOL voltage 544 -1488 R0
WINDOW 123 0 0 Left 2
WINDOW 39 0 0 Left 2
SYMATTR InstName V12
SYMATTR Value -15
SYMBOL voltage 864 -1488 R0
WINDOW 123 0 0 Left 2
WINDOW 39 0 0 Left 2
SYMATTR InstName V13
SYMATTR Value 15
SYMBOL cap 544 -1280 R0
SYMATTR InstName C7
SYMATTR Value 0.1µ
SYMBOL voltage -352 -1280 R0
WINDOW 123 0 0 Left 2
WINDOW 39 0 0 Left 2
SYMATTR InstName V14
SYMATTR Value 2
SYMBOL pnp 640 -960 R0
SYMATTR InstName Q3
SYMBOL pnp 928 -960 M0
SYMATTR InstName Q4
SYMBOL Opamps\\LT1001 688 -688 R0
SYMATTR InstName U13
SYMBOL res 768 -832 R0
SYMATTR InstName R40
SYMATTR Value 1.5k
SYMBOL res 544 -544 R180
WINDOW 0 36 76 Left 2
WINDOW 3 36 40 Left 2
SYMATTR InstName R41
SYMATTR Value 1.5MEG
SYMBOL cap 576 -704 R270
WINDOW 0 32 32 VTop 2
WINDOW 3 0 32 VBottom 2
SYMATTR InstName C8
SYMATTR Value 47p
SYMBOL Opamps\\LT1001 -224 -1376 R0
SYMATTR InstName U14
SYMBOL Opamps\\LT1001 96 -1376 R0
SYMATTR InstName U15
SYMBOL res 32 -1344 R90
WINDOW 0 0 56 VBottom 2
WINDOW 3 32 56 VTop 2
SYMATTR InstName R42
SYMATTR Value 39k
SYMBOL res 32 -1456 R90
WINDOW 0 0 56 VBottom 2
WINDOW 3 32 56 VTop 2
SYMATTR InstName R43
SYMATTR Value 4.99k
SYMBOL res 160 -1456 R90
WINDOW 0 0 56 VBottom 2
WINDOW 3 32 56 VTop 2
SYMATTR InstName R44
SYMATTR Value 10k
TEXT -784 256 Left 2 !.lib LTC.lib
TEXT -784 280 Left 2 !.lib lm13700.sub
TEXT 2712 -584 Left 2 ;Resonance
TEXT -784 1016 Left 2 !;tran 0 0.01 0 0.1
TEXT 272 -1176 Left 2 !;tran 0 1 0 0.1
TEXT 936 -584 Left 2 !.lib LTC.lib
TEXT -424 -1120 Left 2 !.dc V14 0 5 0.001
