Version 4
SHEET 1 1356 920
WIRE -208 -96 -608 -96
WIRE 480 -96 -208 -96
WIRE 1088 -96 480 -96
WIRE 160 -16 -192 -16
WIRE 208 -16 160 -16
WIRE 320 -16 288 -16
WIRE 352 -16 320 -16
WIRE 480 -16 480 -96
WIRE 480 -16 432 -16
WIRE 752 -16 480 -16
WIRE -528 16 -672 16
WIRE -448 16 -528 16
WIRE -336 16 -368 16
WIRE -320 16 -336 16
WIRE -224 16 -240 16
WIRE 320 16 320 -16
WIRE -208 80 -208 -96
WIRE -208 80 -288 80
WIRE -608 112 -608 -96
WIRE -288 112 -288 80
WIRE -672 128 -672 16
WIRE -640 128 -672 128
WIRE -336 128 -336 16
WIRE -336 128 -368 128
WIRE -320 128 -336 128
WIRE -528 144 -528 16
WIRE -528 144 -576 144
WIRE -224 144 -224 16
WIRE -224 144 -256 144
WIRE -16 144 -224 144
WIRE 176 144 144 144
WIRE 208 144 176 144
WIRE 320 144 320 96
WIRE 320 144 288 144
WIRE 640 144 320 144
WIRE -640 160 -736 160
WIRE -320 160 -352 160
WIRE 176 176 176 144
WIRE 320 176 320 144
WIRE -736 192 -736 160
WIRE -352 192 -352 160
WIRE 176 256 176 240
WIRE -608 288 -608 176
WIRE -448 288 -448 128
WIRE -448 288 -608 288
WIRE -288 288 -288 176
WIRE -288 288 -448 288
WIRE -192 288 -192 -16
WIRE -192 288 -288 288
WIRE 320 368 144 368
WIRE 1184 368 480 368
WIRE 1184 400 1184 368
WIRE 320 496 320 368
WIRE 480 496 480 368
WIRE 992 496 896 496
WIRE 1088 496 1088 -96
WIRE 1184 528 1184 480
WIRE 256 544 208 544
WIRE 640 544 640 144
WIRE 640 544 544 544
WIRE 208 576 208 544
WIRE 400 592 320 592
WIRE 480 592 400 592
WIRE 992 624 896 624
WIRE 400 640 400 592
WIRE 144 736 144 368
WIRE 192 736 144 736
WIRE 400 736 400 720
WIRE 400 736 256 736
WIRE 752 768 752 -16
WIRE 752 768 304 768
WIRE 304 800 304 768
WIRE 144 816 144 736
WIRE 272 816 144 816
WIRE 400 832 400 736
WIRE 400 832 336 832
WIRE 272 848 240 848
WIRE 240 864 240 848
WIRE -192 896 -192 288
WIRE 144 896 -192 896
WIRE 144 912 144 896
WIRE 304 912 304 864
WIRE 304 912 144 912
WIRE 1088 912 1088 624
WIRE 1088 912 304 912
FLAG 320 256 0
FLAG 176 256 0
FLAG 160 64 0
FLAG 480 64 0
FLAG 240 864 0
FLAG 208 576 0
FLAG -736 272 0
FLAG -352 192 0
FLAG 896 496 0
FLAG 896 624 0
SYMBOL res 80 128 R90
WINDOW 0 0 56 VBottom 2
WINDOW 3 32 56 VTop 2
SYMATTR InstName R1
SYMATTR Value 5k
SYMBOL res 160 128 R90
WINDOW 0 0 56 VBottom 2
WINDOW 3 32 56 VTop 2
SYMATTR InstName R2
SYMATTR Value 10k
SYMBOL res 304 128 R90
WINDOW 0 0 56 VBottom 2
WINDOW 3 32 56 VTop 2
SYMATTR InstName R3
SYMATTR Value 8k2
SYMBOL res 336 272 R180
WINDOW 0 36 76 Left 2
WINDOW 3 36 40 Left 2
SYMATTR InstName R4
SYMATTR Value 560
SYMBOL res 336 112 R180
WINDOW 0 36 76 Left 2
WINDOW 3 36 40 Left 2
SYMATTR InstName R5
SYMATTR Value 680k
SYMBOL res 336 0 R270
WINDOW 0 32 56 VTop 2
WINDOW 3 0 56 VBottom 2
SYMATTR InstName R6
SYMATTR Value 50k
SYMBOL res 192 0 R270
WINDOW 0 32 56 VTop 2
WINDOW 3 0 56 VBottom 2
SYMATTR InstName R7
SYMATTR Value 50k
SYMBOL voltage 160 -32 R0
WINDOW 123 0 0 Left 2
WINDOW 39 0 0 Left 2
SYMATTR InstName V1
SYMATTR Value -15
SYMBOL voltage 480 -32 R0
WINDOW 123 0 0 Left 2
WINDOW 39 0 0 Left 2
SYMATTR InstName V2
SYMATTR Value 15
SYMBOL cap 160 176 R0
SYMATTR InstName C1
SYMATTR Value 0.1µ
SYMBOL voltage -736 176 R0
WINDOW 123 0 0 Left 2
WINDOW 39 0 0 Left 2
SYMATTR InstName V3
SYMATTR Value 0
SYMBOL pnp 256 496 R0
SYMATTR InstName Q2
SYMBOL pnp 544 496 M0
SYMATTR InstName Q3
SYMBOL Opamps\\LT1001 304 768 R0
SYMATTR InstName U1
SYMBOL res 384 624 R0
SYMATTR InstName R8
SYMATTR Value 1.5k
SYMBOL res 160 912 R180
WINDOW 0 36 76 Left 2
WINDOW 3 36 40 Left 2
SYMATTR InstName R9
SYMATTR Value 1.5MEG
SYMBOL cap 192 752 R270
WINDOW 0 32 32 VTop 2
WINDOW 3 0 32 VBottom 2
SYMATTR InstName C2
SYMATTR Value 47p
SYMBOL Opamps\\LT1001 -608 80 R0
SYMATTR InstName U2
SYMBOL Opamps\\LT1001 -288 80 R0
SYMATTR InstName U3
SYMBOL res -352 112 R90
WINDOW 0 0 56 VBottom 2
WINDOW 3 32 56 VTop 2
SYMATTR InstName R11
SYMATTR Value 39k
SYMBOL res -352 0 R90
WINDOW 0 0 56 VBottom 2
WINDOW 3 32 56 VTop 2
SYMATTR InstName R12
SYMATTR Value 4.99k
SYMBOL res -224 0 R90
WINDOW 0 0 56 VBottom 2
WINDOW 3 32 56 VTop 2
SYMATTR InstName R13
SYMATTR Value 10k
SYMBOL LM13700 1056 480 R0
SYMATTR InstName U4
SYMBOL res 1168 384 R0
SYMATTR InstName R10
SYMATTR Value 18k
TEXT -114 280 Left 2 !.tran 0 1 0 0.1
TEXT 552 872 Left 2 !.lib LTC.lib
TEXT 1136 680 Left 2 !.lib LM13700.sub
