Version 4
SHEET 1 3956 1152
WIRE 2336 -1952 2336 -1984
WIRE 2336 -1872 2240 -1872
WIRE 2240 -1856 2240 -1872
WIRE 2336 -1760 2336 -1792
WIRE 352 -1472 80 -1472
WIRE -992 -848 -1088 -848
WIRE -80 -848 -912 -848
WIRE -736 -800 -816 -800
WIRE 992 -800 -736 -800
WIRE -816 -768 -816 -800
WIRE -736 -768 -736 -800
WIRE -160 -752 -192 -752
WIRE -160 -720 -160 -752
WIRE -416 -688 -448 -688
WIRE -816 -672 -816 -704
WIRE -736 -672 -736 -688
WIRE -736 -672 -816 -672
WIRE -576 -672 -736 -672
WIRE -576 -640 -576 -672
WIRE -448 -640 -448 -688
WIRE -448 -640 -576 -640
WIRE -80 -624 -80 -848
WIRE -80 -624 -192 -624
WIRE 0 -624 -80 -624
WIRE 176 -624 80 -624
WIRE -288 -592 -288 -624
WIRE -80 -592 -80 -624
WIRE -384 -560 -384 -656
WIRE -384 -448 -384 -480
WIRE -384 -352 -384 -368
WIRE 2912 -320 2912 -1632
WIRE -48 -128 -128 -128
WIRE 784 -128 688 -128
WIRE -736 -64 -736 -672
WIRE -704 -64 -736 -64
WIRE -592 -64 -624 -64
WIRE 176 -64 176 -624
WIRE 176 -64 48 -64
WIRE -128 -48 -128 -128
WIRE 688 -48 688 -128
WIRE -1312 -32 -1328 -32
WIRE -1216 -32 -1232 -32
WIRE 992 0 992 -800
WIRE 992 0 864 0
WIRE -736 16 -736 -64
WIRE -704 16 -736 16
WIRE -1440 32 -1584 32
WIRE -1328 32 -1328 -32
WIRE -1328 32 -1360 32
WIRE -1312 32 -1328 32
WIRE -592 32 -592 -64
WIRE -592 32 -640 32
WIRE -464 32 -512 32
WIRE -320 32 -464 32
WIRE -224 32 -224 0
WIRE 176 32 176 -64
WIRE 224 32 176 32
WIRE 352 32 304 32
WIRE 496 32 352 32
WIRE 592 32 592 0
WIRE -1216 48 -1216 -32
WIRE -1216 48 -1248 48
WIRE -1088 48 -1088 -848
WIRE -1088 48 -1216 48
WIRE -1072 48 -1088 48
WIRE -928 48 -992 48
WIRE -848 48 -928 48
WIRE -784 48 -848 48
WIRE -704 48 -784 48
WIRE -1312 64 -1328 64
WIRE -784 64 -784 48
WIRE -128 64 -128 32
WIRE 32 64 -80 64
WIRE 48 64 48 -64
WIRE 64 64 48 64
WIRE 688 64 688 32
WIRE 848 64 736 64
WIRE 864 64 864 0
WIRE 880 64 864 64
WIRE -464 80 -464 32
WIRE 176 80 176 32
WIRE 176 80 128 80
WIRE 352 80 352 32
WIRE 992 80 992 0
WIRE 992 80 944 80
WIRE 1152 80 1072 80
WIRE -80 96 -80 64
WIRE -80 96 -96 96
WIRE 32 96 32 64
WIRE 64 96 32 96
WIRE 736 96 736 64
WIRE 736 96 720 96
WIRE 848 96 848 64
WIRE 880 96 848 96
WIRE -1328 112 -1328 64
WIRE -80 128 -80 96
WIRE 736 128 736 96
WIRE -464 192 -464 160
WIRE -320 192 -320 160
WIRE -224 192 -224 160
WIRE 352 192 352 160
WIRE 496 192 496 160
WIRE 592 192 592 160
WIRE -80 208 -80 192
WIRE 736 208 736 192
FLAG -320 192 0
FLAG -464 192 0
FLAG -80 208 0
FLAG 496 192 0
FLAG 352 192 0
FLAG 736 208 0
FLAG -48 96 0
FLAG 768 96 0
FLAG -784 128 0
FLAG -848 128 0
FLAG -928 128 0
FLAG -160 -720 0
FLAG -80 -512 0
FLAG 2240 -1856 0
FLAG 2336 -1984 15V
FLAG 2336 -1760 -15V
FLAG 352 -1472 IN
FLAG 80 -1392 0
FLAG -1584 32 IN
FLAG -1328 112 0
FLAG -224 0 15V
FLAG 592 0 15V
FLAG -224 192 -15V
FLAG 592 192 -15V
FLAG -288 -592 15V
FLAG -288 -752 -15V
FLAG -384 -352 0
FLAG -48 -48 0
FLAG 784 -48 0
SYMBOL res -496 16 R90
WINDOW 0 0 56 VBottom 2
WINDOW 3 32 56 VTop 2
SYMATTR InstName R1
SYMATTR Value 68k
SYMBOL res -448 176 R180
WINDOW 0 36 76 Left 2
WINDOW 3 36 40 Left 2
SYMATTR InstName R2
SYMATTR Value 560
SYMBOL cap -96 128 R0
SYMATTR InstName C1
SYMATTR Value 330p
SYMBOL res -144 -64 R0
SYMATTR InstName R4
SYMATTR Value 10k
SYMBOL res 320 16 R90
WINDOW 0 0 56 VBottom 2
WINDOW 3 32 56 VTop 2
SYMATTR InstName R5
SYMATTR Value 68k
SYMBOL res 368 176 R180
WINDOW 0 36 76 Left 2
WINDOW 3 36 40 Left 2
SYMATTR InstName R6
SYMATTR Value 560
SYMBOL cap 720 128 R0
SYMATTR InstName C2
SYMATTR Value 330p
SYMBOL res 672 -64 R0
SYMATTR InstName R8
SYMATTR Value 10k
SYMBOL LM13700 -256 16 R0
SYMATTR InstName U1
SYMBOL LM13700 560 16 R0
SYMATTR InstName U2
SYMBOL res -608 -80 R90
WINDOW 0 0 56 VBottom 2
WINDOW 3 32 56 VTop 2
SYMATTR InstName R3
SYMATTR Value 100k
SYMBOL res -832 144 R180
WINDOW 0 36 76 Left 2
WINDOW 3 36 40 Left 2
SYMATTR InstName R7
SYMATTR Value 33k
SYMBOL res -912 144 R180
WINDOW 0 36 76 Left 2
WINDOW 3 36 40 Left 2
SYMATTR InstName R11
SYMATTR Value 10k
SYMBOL res -1088 64 R270
WINDOW 0 32 56 VTop 2
WINDOW 3 0 56 VBottom 2
SYMATTR InstName R15
SYMATTR Value 47k
SYMBOL cap -800 64 R0
SYMATTR InstName C7
SYMATTR Value 33p
SYMBOL res 1088 64 R90
WINDOW 0 0 56 VBottom 2
WINDOW 3 32 56 VTop 2
SYMATTR InstName R33
SYMATTR Value 56k
SYMBOL LM13700 -256 -608 R180
SYMATTR InstName U15
SYMBOL res 96 -640 R90
WINDOW 0 0 56 VBottom 2
WINDOW 3 32 56 VTop 2
SYMATTR InstName R42
SYMATTR Value 68k
SYMBOL res -64 -496 R180
WINDOW 0 36 76 Left 2
WINDOW 3 36 40 Left 2
SYMATTR InstName R43
SYMATTR Value 560
SYMBOL res -752 -784 R0
SYMATTR InstName R44
SYMATTR Value 100k
SYMBOL cap -832 -768 R0
SYMATTR InstName C10
SYMATTR Value 5p
SYMBOL voltage 2336 -1968 R0
WINDOW 123 0 0 Left 2
WINDOW 39 0 0 Left 2
WINDOW 3 -81 54 Left 2
SYMATTR Value 15
SYMATTR InstName V13
SYMBOL voltage 2336 -1888 R0
WINDOW 123 0 0 Left 2
WINDOW 39 0 0 Left 2
WINDOW 3 -75 59 Left 2
SYMATTR Value 15
SYMATTR InstName V14
SYMBOL voltage 80 -1488 R0
WINDOW 3 24 208 Left 2
WINDOW 123 24 180 Left 2
WINDOW 39 0 0 Left 2
SYMATTR Value SINE(0 5 50)
SYMATTR Value2 AC 1
SYMATTR InstName V18
SYMBOL Opamps\\opamp 96 16 R0
SYMATTR InstName U3
SYMBOL Opamps\\opamp -672 -32 R0
SYMATTR InstName U4
SYMBOL Opamps\\opamp 912 16 R0
SYMATTR InstName U6
SYMBOL res -1456 48 R270
WINDOW 0 32 56 VTop 2
WINDOW 3 0 56 VBottom 2
SYMATTR InstName R21
SYMATTR Value 100k
SYMBOL Opamps\\opamp -1280 -16 R0
SYMATTR InstName U21
SYMBOL res -1328 -16 R270
WINDOW 0 32 56 VTop 2
WINDOW 3 0 56 VBottom 2
SYMATTR InstName R22
SYMATTR Value 15k
SYMBOL res -400 -576 R0
SYMATTR InstName R54
SYMATTR Value 10k
SYMBOL current -384 -448 R0
WINDOW 123 0 0 Left 2
WINDOW 39 0 0 Left 2
SYMATTR InstName I2
SYMATTR Value -124µA
SYMBOL current -48 -128 R0
WINDOW 123 0 0 Left 2
WINDOW 39 0 0 Left 2
SYMATTR InstName I1
SYMATTR Value 1.37mA
SYMBOL current 784 -128 R0
WINDOW 123 0 0 Left 2
WINDOW 39 0 0 Left 2
SYMATTR InstName I3
SYMATTR Value 1.37mA
SYMBOL res -896 -864 R90
WINDOW 0 0 56 VBottom 2
WINDOW 3 32 56 VTop 2
SYMATTR InstName R9
SYMATTR Value 33k
TEXT -1264 256 Left 2 !.lib LTC.lib
TEXT -1264 280 Left 2 !.lib lm13700.sub
TEXT -1368 192 Left 2 !;ac oct 100 0.1 50000
TEXT -808 -920 Left 2 ;Discovered missing feedback 33k
TEXT -424 -1184 Left 2 !.lib opamp.sub
TEXT -1648 88 Left 2 ;Summing point\nUse 100k resistor
TEXT 1088 48 Left 2 ;LP
TEXT -1480 -224 Left 2 ;Simulation does not work if \nR22 > 4k or Cutoff CV > 4.7V\n \n15k works with 4.7V CV (26kHz)\n3.9k works with 5V CV (33kHz)
TEXT -144 -1536 Left 2 !;dc V16 0 5 0.01
TEXT -1650 300 Left 2 !.tran 0 1 0 0.01
