Version 4
SHEET 1 880 680
WIRE 96 -272 -112 -272
WIRE 480 -272 96 -272
WIRE 592 -272 480 -272
WIRE 320 -160 256 -160
WIRE 96 -144 96 -272
WIRE -80 -128 -208 -128
WIRE 16 -128 0 -128
WIRE 64 -128 16 -128
WIRE 160 -112 128 -112
WIRE 192 -112 160 -112
WIRE 64 -96 48 -96
WIRE 48 -80 48 -96
WIRE 16 -48 16 -128
WIRE 160 -48 16 -48
WIRE 256 -48 256 -64
WIRE 256 -48 160 -48
WIRE 384 -16 144 -16
WIRE 320 16 320 -160
WIRE 320 16 240 16
WIRE 448 32 432 32
WIRE 544 32 528 32
WIRE 240 48 240 16
WIRE 384 48 384 -16
WIRE 384 48 368 48
WIRE 96 64 96 -80
WIRE 176 64 96 64
WIRE 144 96 144 -16
WIRE 368 96 368 48
WIRE 480 96 368 96
WIRE 592 96 592 -272
WIRE 592 96 480 96
WIRE -32 112 -32 96
WIRE 480 112 480 96
WIRE 432 128 432 32
WIRE 432 128 272 128
WIRE 448 128 432 128
WIRE 544 144 544 32
WIRE 544 144 512 144
WIRE 624 144 544 144
WIRE -112 160 -112 -272
WIRE -32 160 -112 160
WIRE 272 160 272 128
WIRE 448 160 432 160
WIRE 432 176 432 160
WIRE -32 224 -208 224
WIRE 64 272 64 224
WIRE 144 272 144 224
WIRE 176 272 176 64
WIRE 176 272 144 272
WIRE 480 272 480 176
WIRE 480 272 176 272
FLAG -32 112 0
FLAG 64 352 0
FLAG 320 160 0
FLAG 432 176 0
FLAG 48 -80 0
FLAG 480 -192 0
FLAG -208 -48 0
FLAG -208 304 0
FLAG 480 352 0
SYMBOL LM13700 112 80 R0
SYMATTR InstName U1
SYMBOL res 64 80 R90
WINDOW 0 -1 124 VBottom 2
WINDOW 3 -33 65 VTop 2
SYMATTR InstName R1
SYMATTR Value 8k
SYMBOL res 64 144 R90
WINDOW 0 55 111 VBottom 2
WINDOW 3 29 60 VTop 2
SYMATTR InstName R2
SYMATTR Value 12k
SYMBOL res 64 208 R90
WINDOW 0 58 115 VBottom 2
WINDOW 3 32 56 VTop 2
SYMATTR InstName R3
SYMATTR Value 5600
SYMBOL res 48 256 R0
SYMATTR InstName R4
SYMATTR Value 510
SYMBOL res 224 32 R0
SYMATTR InstName R5
SYMATTR Value 8k2
SYMBOL res 16 -144 R90
WINDOW 0 0 56 VBottom 2
WINDOW 3 32 56 VTop 2
SYMATTR InstName R6
SYMATTR Value 3k3
SYMBOL res 544 16 R90
WINDOW 0 0 56 VBottom 2
WINDOW 3 32 56 VTop 2
SYMATTR InstName R7
SYMATTR Value 4700
SYMBOL diode 144 -112 R0
SYMATTR InstName D1
SYMBOL Opamps\\LT1001 96 -176 R0
WINDOW 3 20 164 Left 2
SYMATTR InstName U2
SYMBOL Opamps\\LT1001 480 80 R0
SYMATTR InstName U3
SYMBOL pnp 192 -160 R0
SYMATTR InstName Q1
SYMBOL voltage -208 208 R0
WINDOW 123 0 0 Left 2
WINDOW 39 0 0 Left 2
SYMATTR InstName V1
SYMATTR Value SINE(0 5 100)
SYMBOL voltage -208 -144 R0
WINDOW 123 0 0 Left 2
WINDOW 39 0 0 Left 2
SYMATTR InstName V2
SYMATTR Value 10
SYMBOL voltage 480 256 R0
WINDOW 123 0 0 Left 2
WINDOW 39 0 0 Left 2
SYMATTR InstName V3
SYMATTR Value -15v
SYMBOL voltage 480 -288 R0
WINDOW 123 0 0 Left 2
WINDOW 39 0 0 Left 2
SYMATTR InstName V4
SYMATTR Value 15v
TEXT -328 64 Left 2 !.lib LTC.lib
TEXT -320 96 Left 2 !.lib lm13700.sub
TEXT -330 376 Left 2 !.tran 0 0.2 0 0.01
